Version 4
SHEET 1 1512 1684
WIRE -656 -736 -704 -736
WIRE -528 -736 -592 -736
WIRE -704 -624 -704 -736
WIRE -672 -624 -704 -624
WIRE -528 -624 -528 -736
WIRE -528 -624 -592 -624
WIRE -528 -576 -528 -624
WIRE -480 -576 -528 -576
WIRE -832 -528 -880 -528
WIRE -704 -528 -704 -624
WIRE -704 -528 -752 -528
WIRE -704 -496 -704 -528
WIRE -672 -496 -704 -496
WIRE -528 -480 -528 -576
WIRE -528 -480 -608 -480
WIRE -672 -464 -704 -464
WIRE -832 -432 -880 -432
WIRE -704 -432 -704 -464
WIRE -704 -432 -752 -432
WIRE -208 -416 -208 -448
WIRE -48 -416 -48 -448
WIRE 112 -416 112 -448
WIRE 288 -416 288 -448
WIRE -704 -384 -704 -432
WIRE -208 -288 -208 -336
WIRE -48 -288 -48 -336
WIRE 112 -288 112 -336
WIRE 288 -288 288 -336
WIRE -704 -256 -704 -304
WIRE -1760 -176 -1776 -176
WIRE -1648 -176 -1680 -176
WIRE -1616 -176 -1648 -176
WIRE -1648 -144 -1648 -176
WIRE -1568 -144 -1568 -176
WIRE -1344 -144 -1568 -144
WIRE -2128 -128 -2128 -144
WIRE -1344 -96 -1344 -144
WIRE -1648 -64 -1648 -80
WIRE -1568 -48 -1568 -144
WIRE -2176 0 -2400 0
WIRE -1344 16 -1344 -16
WIRE -2400 32 -2400 0
WIRE -2128 32 -2128 -128
WIRE -2448 48 -2576 48
WIRE -2176 48 -2176 0
WIRE -1568 96 -1568 32
WIRE -1568 96 -1792 96
WIRE -1456 96 -1568 96
WIRE -2176 112 -2208 112
WIRE -2576 128 -2576 48
WIRE -2400 128 -2400 112
WIRE -2128 128 -2128 112
WIRE -1456 128 -1456 96
WIRE -2208 144 -2208 112
WIRE -1456 160 -1456 128
WIRE -2128 176 -2128 128
WIRE -2016 176 -2128 176
WIRE -1840 176 -1840 128
WIRE -1792 176 -1792 96
WIRE -2576 240 -2576 208
WIRE -1456 304 -1456 240
WIRE -1392 304 -1456 304
WIRE -1456 336 -1456 304
WIRE -1792 368 -1792 256
WIRE -1712 368 -1792 368
WIRE -1392 368 -1712 368
WIRE -1712 480 -1712 368
WIRE -1456 496 -1456 336
WIRE -1712 608 -1712 560
WIRE -1456 608 -1456 576
WIRE -1456 608 -1712 608
WIRE -1456 656 -1456 608
WIRE -1600 992 -1664 992
WIRE -1408 992 -1520 992
FLAG -208 -288 0
FLAG -208 -448 6.4V
FLAG -1456 656 0
FLAG -48 -288 0
FLAG -48 -448 15V
FLAG 112 -288 0
FLAG 112 -448 -15V
FLAG -640 -512 15V
FLAG -640 -448 -15V
FLAG -704 -256 0
FLAG 288 -288 0
FLAG 288 -448 24V
FLAG -1392 304 bridge1
FLAG -1392 368 bridge2
FLAG -880 -528 bridge1
FLAG -880 -432 bridge2
FLAG -528 -480 A
FLAG -1840 304 0
FLAG -1456 128 Vrt1
FLAG -1456 336 Vrt2
FLAG -1776 -176 15V
FLAG -1648 -64 0
FLAG -2016 176 Vrt2
FLAG -2128 -128 Vrt1
FLAG -2576 240 0
FLAG -2208 144 0
FLAG -2448 96 0
FLAG -2400 128 0
FLAG -1344 16 0
FLAG -1664 992 0
FLAG -1408 992 A+noise
FLAG -1840 672 0
DATAFLAG -1696 368 ""
DATAFLAG -1424 304 ""
DATAFLAG -480 -576 ""
SYMBOL voltage -208 -432 R0
WINDOW 123 0 0 Left 0
WINDOW 39 0 0 Left 0
SYMATTR InstName U6.4V
SYMATTR Value 6.4
SYMBOL res -1728 464 R0
SYMATTR InstName Rbr1
SYMATTR Value 7.5k
SYMBOL res -1472 144 R0
SYMATTR InstName Rbrs
SYMATTR Value 5.4k
SYMBOL res -1472 480 R0
SYMATTR InstName Rbr2
SYMATTR Value 7.5k
SYMBOL res -1584 -64 R0
SYMATTR InstName Rbr3
SYMATTR Value 2.61k
SYMBOL voltage -48 -432 R0
WINDOW 123 0 0 Left 0
WINDOW 39 0 0 Left 0
SYMATTR InstName U15V
SYMATTR Value 15
SYMBOL voltage 112 -432 R0
WINDOW 123 0 0 Left 0
WINDOW 39 0 0 Left 0
SYMATTR InstName Un15V
SYMATTR Value -15
SYMBOL res -736 -544 R90
WINDOW 0 0 56 VBottom 2
WINDOW 3 32 56 VTop 2
SYMATTR InstName Rdiff1
SYMATTR Value 51k
SYMBOL res -736 -448 R90
WINDOW 0 0 56 VBottom 2
WINDOW 3 32 56 VTop 2
SYMATTR InstName Rdiff2
SYMATTR Value 51k
SYMBOL res -720 -400 R0
SYMATTR InstName Rdiff4
SYMATTR Value 210k
SYMBOL res -576 -640 R90
WINDOW 0 0 56 VBottom 2
WINDOW 3 32 56 VTop 2
SYMATTR InstName Rdiff3
SYMATTR Value 210k
SYMBOL voltage 288 -432 R0
WINDOW 123 0 0 Left 0
WINDOW 39 0 0 Left 0
SYMATTR InstName Un24
SYMATTR Value 24
SYMBOL cap -592 -752 R90
WINDOW 0 0 32 VBottom 2
WINDOW 3 32 32 VTop 2
SYMATTR InstName Cdiff1
SYMATTR Value 0.1µ
SYMBOL zener -1632 -80 R180
WINDOW 0 44 33 Left 2
WINDOW 3 24 0 Left 2
SYMATTR InstName Dbr1
SYMATTR Value zbr1
SYMBOL res -1664 -192 R90
WINDOW 0 0 56 VBottom 2
WINDOW 3 32 56 VTop 2
SYMATTR InstName Rbrz
SYMATTR Value 1.5k
SYMBOL res -1808 160 R0
SYMATTR InstName Rbr4
SYMATTR Value 4.52k
SYMBOL ResVolt3 -2128 80 R0
SYMATTR InstName Xdistb
SYMATTR SpiceLine rv=286.2k a=0
SYMBOL bv -2576 112 R0
WINDOW 3 40 101 Left 2
SYMATTR Value V=if(time>3000,1,3000)
SYMATTR InstName Bdistb
SYMBOL e -2400 16 R0
WINDOW 3 -94 -53 Left 2
SYMATTR Value Laplace=1/(1*s+1)
SYMATTR InstName Edistb
SYMBOL Opamps\\UniversalOpamp2 -640 -480 R0
SYMATTR InstName Udiff1
SYMATTR Value2 Avol=250k GBW=0.25Meg Slew=10Meg
SYMATTR SpiceLine Ilimit=25m Rail=0 Vos=40u
SYMATTR SpiceLine2 En=10n Enk=10 In=0.3p Ink=100 Rin=500Meg
SYMBOL voltage -1344 -112 R0
WINDOW 123 0 0 Left 0
WINDOW 39 0 0 Left 0
SYMATTR InstName Vbr
SYMATTR Value 6.4
SYMBOL bv -1504 992 R90
WINDOW 3 54 46 VTop 2
WINDOW 0 -32 56 VBottom 2
SYMATTR Value V=1
SYMATTR InstName Bnoise
SYMBOL voltage -1840 576 R0
WINDOW 123 0 0 Left 0
WINDOW 39 0 0 Left 0
SYMATTR InstName V1
SYMATTR Value 1
TEXT -2080 -968 Left 2 !;tran 0 6000 0
TEXT -1480 -192 Left 4 ;Wheatstone Bridge
TEXT -232 -568 Left 4 ;Power Supply
TEXT -1016 -848 Left 4 ;Input Diff Amplifier
TEXT -1576 768 Left 2 !.model zbr1 AKO:BZX384B6V2 (Bv=6.42)
TEXT -2600 -208 Left 4 ;Set Point Disturbance
TEXT -2624 -1104 Left 4 ;Model Congig
TEXT -1856 880 Left 4 ;Noise
TEXT -1848 1144 Left 2 !.param noisetime 10
TEXT -1856 1208 Left 2 !.param noiselevel 500
TEXT -1840 1104 Left 2 ;V=white(time*{noisetime})/{noiselevel}*4+V(A)
TEXT -2648 -568 Left 2 !.noise V(A) V1 dec 1000 0.01 100meg
RECTANGLE Normal -1088 800 -1904 -240 2
RECTANGLE Normal 512 -624 -256 -224 2
RECTANGLE Normal -304 -208 -1056 -896 2
RECTANGLE Normal -1936 320 -2624 -240 2
RECTANGLE Normal -1696 -816 -2656 -1152 2
RECTANGLE Normal -1088 1296 -1904 832 2
