Version 4
SHEET 1 880 680
SYMBOL npn 80 96 R0
SYMATTR InstName Q1
